Version 4
SHEET 1 996 680
WIRE 720 -160 528 -160
WIRE 928 -160 720 -160
WIRE 992 -160 928 -160
WIRE 528 -144 528 -160
WIRE 336 -48 208 -48
WIRE 528 -48 528 -64
WIRE 528 -48 336 -48
WIRE 592 -48 528 -48
WIRE 928 -48 672 -48
WIRE 992 -48 928 -48
WIRE 240 48 208 48
WIRE 336 48 240 48
WIRE 528 48 336 48
WIRE 720 48 720 -160
WIRE 720 48 640 48
WIRE 240 64 240 48
WIRE 528 64 528 48
WIRE 720 112 720 48
WIRE 640 160 640 48
WIRE 240 176 240 144
WIRE 336 176 240 176
WIRE 400 176 336 176
WIRE 720 208 720 192
WIRE 720 208 704 208
WIRE 768 208 720 208
WIRE 928 208 848 208
WIRE 992 208 928 208
WIRE 336 256 240 256
WIRE 512 256 336 256
WIRE 640 256 592 256
WIRE 240 272 240 256
WIRE 240 368 240 352
WIRE 240 368 208 368
WIRE 240 464 208 464
WIRE 336 464 240 464
WIRE 528 464 336 464
WIRE 928 464 528 464
WIRE 992 464 928 464
WIRE 240 496 240 464
WIRE 528 496 528 464
FLAG 336 -48 4_DTR
FLAG 336 48 2_RX
FLAG 336 256 3_TX
FLAG 336 464 5_GND
FLAG 240 496 0
FLAG 336 176 7_RTS
FLAG 528 64 0
FLAG 528 496 0
FLAG 928 -48 uart_RX
FLAG 928 208 uart_TX
FLAG 928 464 ground
FLAG 928 -160 +5V
SYMBOL Optos\\PC817D 112 0 R0
SYMATTR InstName U1
SYMBOL Optos\\PC817D 112 416 M0
SYMATTR InstName U2
SYMBOL res 224 256 R0
SYMATTR InstName R1
SYMATTR Value 1k
SYMBOL res 224 48 R0
SYMATTR InstName R2
SYMATTR Value 10k
SYMBOL res 512 -160 R0
SYMATTR InstName R3
SYMATTR Value 10k
SYMBOL res 688 -64 R90
WINDOW 0 0 56 VBottom 2
WINDOW 3 32 56 VTop 2
SYMATTR InstName R4
SYMATTR Value 330
SYMBOL pnp 704 256 R180
SYMATTR InstName Q1
SYMATTR Value BC557
SYMBOL res 608 240 R90
WINDOW 0 0 56 VBottom 2
WINDOW 3 32 56 VTop 2
SYMATTR InstName R5
SYMATTR Value 330
SYMBOL res 704 96 R0
SYMATTR InstName R6
SYMATTR Value 2.2k
SYMBOL res 864 192 R90
WINDOW 0 0 56 VBottom 2
WINDOW 3 32 56 VTop 2
SYMATTR InstName R7
SYMATTR Value 4.7k
TEXT 168 -208 Left 2 ;AimTTi 1604
TEXT 520 -208 Left 2 ;JLN board
TEXT 904 -208 Left 2 ;Nucleo
TEXT 416 -32 Left 2 ;orange
TEXT 416 64 Left 2 ;brown
TEXT 416 272 Left 2 ;red
TEXT 408 480 Left 2 ;yellow
LINE Normal 400 512 400 -224 2
LINE Normal 400 512 400 512 2
LINE Normal 864 512 864 -224 2
